data_image0
_chemical_formula_structural       Fe4Na8O16Si4
_chemical_formula_sum              "Fe4 Na8 O16 Si4"
_cell_length_a       10.0184
_cell_length_b       5.4081
_cell_length_c       6.33912
_cell_angle_alpha    90
_cell_angle_beta     90
_cell_angle_gamma    90

_space_group_name_H-M_alt    "P 1"
_space_group_IT_number       1

loop_
  _space_group_symop_operation_xyz
  'x, y, z'

loop_
  _atom_site_type_symbol
  _atom_site_label
  _atom_site_symmetry_multiplicity
  _atom_site_fract_x
  _atom_site_fract_y
  _atom_site_fract_z
  _atom_site_occupancy
  Fe  Fe1       1.0  0.03180  0.82897  0.00000  1.0000
  Fe  Fe2       1.0  0.53180  0.82897  0.00000  1.0000
  Fe  Fe3       1.0  0.28180  0.17103  0.50000  1.0000
  Fe  Fe4       1.0  0.78180  0.17103  0.50000  1.0000
  Na  Na1       1.0  0.02874  0.33160  0.25034  1.0000
  Na  Na2       1.0  0.52874  0.33160  0.25034  1.0000
  Na  Na3       1.0  0.27874  0.66840  0.24966  1.0000
  Na  Na4       1.0  0.77874  0.66840  0.24966  1.0000
  Na  Na5       1.0  0.27874  0.66840  0.75034  1.0000
  Na  Na6       1.0  0.77874  0.66840  0.75034  1.0000
  Na  Na7       1.0  0.02874  0.33160  0.74966  1.0000
  Na  Na8       1.0  0.52874  0.33160  0.74966  1.0000
  O   O1        1.0  0.32381  0.87689  0.00000  1.0000
  O   O2        1.0  0.82381  0.87689  0.00000  1.0000
  O   O3        1.0  0.07381  0.12311  0.50000  1.0000
  O   O4        1.0  0.57381  0.12311  0.50000  1.0000
  O   O5        1.0  0.07984  0.68562  0.28615  1.0000
  O   O6        1.0  0.57984  0.68562  0.28615  1.0000
  O   O7        1.0  0.32984  0.31438  0.78615  1.0000
  O   O8        1.0  0.82984  0.31438  0.78615  1.0000
  O   O9        1.0  0.32984  0.31438  0.21385  1.0000
  O   O10       1.0  0.82984  0.31438  0.21385  1.0000
  O   O11       1.0  0.07984  0.68562  0.71385  1.0000
  O   O12       1.0  0.57984  0.68562  0.71385  1.0000
  O   O13       1.0  0.35993  0.82006  0.50000  1.0000
  O   O14       1.0  0.85993  0.82006  0.50000  1.0000
  O   O15       1.0  0.10993  0.17994  0.00000  1.0000
  O   O16       1.0  0.60993  0.17994  0.00000  1.0000
  Si  Si1       1.0  0.02471  0.82952  0.50000  1.0000
  Si  Si2       1.0  0.52471  0.82952  0.50000  1.0000
  Si  Si3       1.0  0.27471  0.17048  0.00000  1.0000
  Si  Si4       1.0  0.77471  0.17048  0.00000  1.0000
